# generated using pymatgen
data_ErPH5CO7
_symmetry_space_group_name_H-M   'P 1'
_cell_length_a   6.44003000
_cell_length_b   6.83264000
_cell_length_c   7.67475000
_cell_angle_alpha   111.65440000
_cell_angle_beta   95.75740000
_cell_angle_gamma   91.09640000
_symmetry_Int_Tables_number   1
_chemical_formula_structural   ErPH5CO7
_chemical_formula_sum   'Er2 P2 H10 C2 O14'
_cell_volume   311.71470155
_cell_formula_units_Z   2
loop_
 _symmetry_equiv_pos_site_id
 _symmetry_equiv_pos_as_xyz
  1  'x, y, z'
loop_
 _atom_site_type_symbol
 _atom_site_label
 _atom_site_symmetry_multiplicity
 _atom_site_fract_x
 _atom_site_fract_y
 _atom_site_fract_z
 _atom_site_occupancy
  Er  Er0  1  0.87664500  0.78077400  0.06840500  1
  Er  Er1  1  0.12335500  0.21922600  0.93159500  1
  P  P2  1  0.33023000  0.74757000  0.97917000  1
  P  P3  1  0.66977000  0.25243000  0.02083000  1
  H  H4  1  0.36220000  0.72040000  0.79780000  1
  H  H5  1  0.63780000  0.27960000  0.20220000  1
  O  O6  1  0.19797000  0.94162000  0.03577000  1
  O  O7  1  0.80203000  0.05838000  0.96423000  1
  O  O8  1  0.53377000  0.77912000  0.10557000  1
  O  O9  1  0.46623000  0.22088000  0.89443000  1
  O  O10  1  0.18157000  0.56982000  0.97643000  1
  O  O11  1  0.81843000  0.43018000  0.02357000  1
  O  O12  1  0.05098000  0.75242000  0.34657000  1
  O  O13  1  0.94902000  0.24758000  0.65343000  1
  O  O14  1  0.85352000  0.08459000  0.34638000  1
  O  O15  1  0.14648000  0.91541000  0.65362000  1
  O  O16  1  0.79631000  0.62661000  0.74743000  1
  O  O17  1  0.20369000  0.37339000  0.25257000  1
  H  H18  1  0.72700000  0.67100000  0.66370000  1
  H  H19  1  0.27300000  0.32900000  0.33630000  1
  H  H20  1  0.82670000  0.48740000  0.65720000  1
  H  H21  1  0.17330000  0.51260000  0.34280000  1
  C  C22  1  0.05621100  0.90278800  0.50071100  1
  C  C23  1  0.94378900  0.09721200  0.49928900  1
  O  O24  1  0.42091000  0.21031100  0.49039000  1
  O  O25  1  0.57909000  0.78968900  0.50961000  1
  H  H26  1  0.50370000  0.27670000  0.62240000  1
  H  H27  1  0.49630000  0.72330000  0.37760000  1
  H  H28  1  0.48870000  0.08410000  0.39840000  1
  H  H29  1  0.51130000  0.91590000  0.60160000  1
